New Load.Load_A_oh_124412 Phases=1 Bus1=nd_136197.1 kv=7.9674 kw=1 kvar=0 model=1 conn=delta
New Load.Load_B_oh_124412 Phases=1 Bus1=nd_136197.2 kv=7.9674 kw=1 kvar=0 model=1 conn=delta
New Load.Load_C_oh_124412 Phases=1 Bus1=nd_136197.3 kv=7.9674 kw=1 kvar=0 model=1 conn=delta
New Load.Load_C_oh_207147 Phases=1 Bus1=nd_136205.3 kv=7.9674 kw=4 kvar=1 model=1 conn=delta
New Load.Load_A_oh_207157 Phases=1 Bus1=nd_244631.1 kv=7.9674 kw=4 kvar=1 model=1 conn=delta
New Load.Load_C_oh_207157 Phases=1 Bus1=nd_244631.3 kv=7.9674 kw=4 kvar=1 model=1 conn=delta
New Load.Load_A_oh_207158 Phases=1 Bus1=nd_244651.1 kv=7.9674 kw=3 kvar=1 model=1 conn=delta
New Load.Load_C_oh_207158 Phases=1 Bus1=nd_244651.3 kv=7.9674 kw=3 kvar=1 model=1 conn=delta
New Load.Load_A_oh_207160 Phases=1 Bus1=nd_136157.1 kv=7.9674 kw=7 kvar=2 model=1 conn=delta
New Load.Load_C_oh_207160 Phases=1 Bus1=nd_136157.3 kv=7.9674 kw=7 kvar=2 model=1 conn=delta
New Load.Load_A_oh_207186 Phases=1 Bus1=nd_136201.1 kv=7.9674 kw=4 kvar=1 model=1 conn=delta
New Load.Load_C_oh_207186 Phases=1 Bus1=nd_136201.3 kv=7.9674 kw=4 kvar=1 model=1 conn=delta
New Load.Load_A_oh_207190 Phases=1 Bus1=nd_136216.1 kv=7.9674 kw=4 kvar=1 model=1 conn=delta
New Load.Load_B_oh_207190 Phases=1 Bus1=nd_136216.2 kv=7.9674 kw=4 kvar=1 model=1 conn=delta
New Load.Load_C_oh_207190 Phases=1 Bus1=nd_136216.3 kv=7.9674 kw=4 kvar=1 model=1 conn=delta
New Load.Load_A_oh_207193 Phases=1 Bus1=nd_250543.1 kv=7.9674 kw=4 kvar=1 model=1 conn=delta
New Load.Load_B_oh_207193 Phases=1 Bus1=nd_250543.2 kv=7.9674 kw=4 kvar=1 model=1 conn=delta
New Load.Load_C_oh_207193 Phases=1 Bus1=nd_250543.3 kv=7.9674 kw=4 kvar=1 model=1 conn=delta
New Load.Load_A_oh_207199 Phases=1 Bus1=nd_244733.1 kv=7.9674 kw=3 kvar=1 model=1 conn=delta
New Load.Load_B_oh_207199 Phases=1 Bus1=nd_244733.2 kv=7.9674 kw=3 kvar=1 model=1 conn=delta
New Load.Load_C_oh_207199 Phases=1 Bus1=nd_244733.3 kv=7.9674 kw=3 kvar=1 model=1 conn=delta
New Load.Load_A_oh_207241 Phases=1 Bus1=nd_244817.1 kv=7.9674 kw=3 kvar=1 model=1 conn=delta
New Load.Load_B_oh_207241 Phases=1 Bus1=nd_244817.2 kv=7.9674 kw=3 kvar=1 model=1 conn=delta
New Load.Load_C_oh_207241 Phases=1 Bus1=nd_244817.3 kv=7.9674 kw=3 kvar=1 model=1 conn=delta
New Load.Load_A_oh_207251 Phases=1 Bus1=nd_244837.1 kv=7.9674 kw=4 kvar=1 model=1 conn=delta
New Load.Load_B_oh_207251 Phases=1 Bus1=nd_244837.2 kv=7.9674 kw=4 kvar=1 model=1 conn=delta
New Load.Load_C_oh_207251 Phases=1 Bus1=nd_244837.3 kv=7.9674 kw=4 kvar=1 model=1 conn=delta
New Load.Load_A_oh_207416 Phases=1 Bus1=nd_244813.1 kv=7.9674 kw=20 kvar=5 model=1 conn=delta
New Load.Load_A_oh_207421 Phases=1 Bus1=nd_244837.1 kv=7.9674 kw=3 kvar=1 model=1 conn=delta
New Load.Load_B_oh_207421 Phases=1 Bus1=nd_244837.2 kv=7.9674 kw=3 kvar=1 model=1 conn=delta
New Load.Load_C_oh_207421 Phases=1 Bus1=nd_244837.3 kv=7.9674 kw=3 kvar=1 model=1 conn=delta
New Load.Load_A_oh_207422 Phases=1 Bus1=nd_244823.1 kv=7.9674 kw=3 kvar=1 model=1 conn=delta
New Load.Load_B_oh_207422 Phases=1 Bus1=nd_244823.2 kv=7.9674 kw=3 kvar=1 model=1 conn=delta
New Load.Load_C_oh_207422 Phases=1 Bus1=nd_244823.3 kv=7.9674 kw=3 kvar=1 model=1 conn=delta
New Load.Load_A_oh_207429 Phases=1 Bus1=nd_250543.1 kv=7.9674 kw=3 kvar=1 model=1 conn=delta
New Load.Load_B_oh_207429 Phases=1 Bus1=nd_250543.2 kv=7.9674 kw=3 kvar=1 model=1 conn=delta
New Load.Load_C_oh_207429 Phases=1 Bus1=nd_250543.3 kv=7.9674 kw=3 kvar=1 model=1 conn=delta
New Load.Load_A_oh_207431 Phases=1 Bus1=nd_244813.1 kv=7.9674 kw=3 kvar=1 model=1 conn=delta
New Load.Load_B_oh_207431 Phases=1 Bus1=nd_244813.2 kv=7.9674 kw=2 kvar=0 model=1 conn=delta
New Load.Load_C_oh_207431 Phases=1 Bus1=nd_244813.3 kv=7.9674 kw=1 kvar=1 model=1 conn=delta
New Load.Load_A_oh_207435 Phases=1 Bus1=nd_244817.1 kv=7.9674 kw=3 kvar=1 model=1 conn=delta
New Load.Load_B_oh_207435 Phases=1 Bus1=nd_244817.2 kv=7.9674 kw=3 kvar=1 model=1 conn=delta
New Load.Load_C_oh_207435 Phases=1 Bus1=nd_244817.3 kv=7.9674 kw=3 kvar=1 model=1 conn=delta
New Load.Load_A_oh_207439 Phases=1 Bus1=nd_244857.1 kv=7.9674 kw=4 kvar=1 model=1 conn=delta
New Load.Load_B_oh_207439 Phases=1 Bus1=nd_244857.2 kv=7.9674 kw=4 kvar=1 model=1 conn=delta
New Load.Load_C_oh_207439 Phases=1 Bus1=nd_244857.3 kv=7.9674 kw=4 kvar=1 model=1 conn=delta
New Load.Load_A_oh_207440 Phases=1 Bus1=nd_245213.1 kv=7.9674 kw=3 kvar=1 model=1 conn=delta
New Load.Load_B_oh_207440 Phases=1 Bus1=nd_245213.2 kv=7.9674 kw=3 kvar=1 model=1 conn=delta
New Load.Load_C_oh_207440 Phases=1 Bus1=nd_245213.3 kv=7.9674 kw=3 kvar=1 model=1 conn=delta
New Load.Load_A_oh_207446 Phases=1 Bus1=nd_244823.1 kv=7.9674 kw=3 kvar=1 model=1 conn=delta
New Load.Load_B_oh_207446 Phases=1 Bus1=nd_244823.2 kv=7.9674 kw=3 kvar=1 model=1 conn=delta
New Load.Load_C_oh_207446 Phases=1 Bus1=nd_244823.3 kv=7.9674 kw=3 kvar=1 model=1 conn=delta
New Load.Load_A_oh_209545 Phases=1 Bus1=nd_248559.1 kv=7.9674 kw=4 kvar=1 model=1 conn=delta
New Load.Load_B_oh_209545 Phases=1 Bus1=nd_248559.2 kv=7.9674 kw=4 kvar=1 model=1 conn=delta
New Load.Load_C_oh_209545 Phases=1 Bus1=nd_248559.3 kv=7.9674 kw=4 kvar=1 model=1 conn=delta
New Load.Load_A_oh_209558 Phases=1 Bus1=nd_248583.1 kv=7.9674 kw=4 kvar=1 model=1 conn=delta
New Load.Load_B_oh_209558 Phases=1 Bus1=nd_248583.2 kv=7.9674 kw=4 kvar=1 model=1 conn=delta
New Load.Load_C_oh_209558 Phases=1 Bus1=nd_248583.3 kv=7.9674 kw=4 kvar=1 model=1 conn=delta
New Load.Load_A_oh_210521 Phases=1 Bus1=nd_250487.1 kv=7.9674 kw=4 kvar=1 model=1 conn=delta
New Load.Load_B_oh_210521 Phases=1 Bus1=nd_250487.2 kv=7.9674 kw=4 kvar=1 model=1 conn=delta
New Load.Load_C_oh_210521 Phases=1 Bus1=nd_250487.3 kv=7.9674 kw=4 kvar=1 model=1 conn=delta
New Load.Load_A_oh_210523 Phases=1 Bus1=nd_250491.1 kv=7.9674 kw=10 kvar=3 model=1 conn=delta
New Load.Load_B_oh_210523 Phases=1 Bus1=nd_250491.2 kv=7.9674 kw=6 kvar=2 model=1 conn=delta
New Load.Load_C_oh_210523 Phases=1 Bus1=nd_250491.3 kv=7.9674 kw=4 kvar=4 model=1 conn=delta
New Load.Load_A_oh_210524 Phases=1 Bus1=nd_250493.1 kv=7.9674 kw=10 kvar=3 model=1 conn=delta
New Load.Load_B_oh_210524 Phases=1 Bus1=nd_250493.2 kv=7.9674 kw=6 kvar=2 model=1 conn=delta
New Load.Load_C_oh_210524 Phases=1 Bus1=nd_250493.3 kv=7.9674 kw=4 kvar=4 model=1 conn=delta
New Load.Load_B_oh_210526 Phases=1 Bus1=nd_250497.2 kv=7.9674 kw=13 kvar=4 model=1 conn=delta
New Load.Load_A_oh_210534 Phases=1 Bus1=nd_250513.1 kv=7.9674 kw=4 kvar=1 model=1 conn=delta
New Load.Load_B_oh_210534 Phases=1 Bus1=nd_250513.2 kv=7.9674 kw=4 kvar=1 model=1 conn=delta
New Load.Load_C_oh_210534 Phases=1 Bus1=nd_250513.3 kv=7.9674 kw=4 kvar=1 model=1 conn=delta
New Load.Load_A_oh_210540 Phases=1 Bus1=nd_250525.1 kv=7.9674 kw=1 kvar=0 model=1 conn=delta
New Load.Load_B_oh_210540 Phases=1 Bus1=nd_250525.2 kv=7.9674 kw=1 kvar=0 model=1 conn=delta
New Load.Load_C_oh_210540 Phases=1 Bus1=nd_250525.3 kv=7.9674 kw=1 kvar=0 model=1 conn=delta
New Load.Load_A_oh_210542 Phases=1 Bus1=nd_250529.1 kv=7.9674 kw=4 kvar=1 model=1 conn=delta
New Load.Load_B_oh_210542 Phases=1 Bus1=nd_250529.2 kv=7.9674 kw=4 kvar=1 model=1 conn=delta
New Load.Load_C_oh_210542 Phases=1 Bus1=nd_250529.3 kv=7.9674 kw=4 kvar=1 model=1 conn=delta
New Load.Load_A_oh_210546 Phases=1 Bus1=nd_250537.1 kv=7.9674 kw=6 kvar=2 model=1 conn=delta
New Load.Load_B_oh_210546 Phases=1 Bus1=nd_250537.2 kv=7.9674 kw=4 kvar=4 model=1 conn=delta
New Load.Load_C_oh_210546 Phases=1 Bus1=nd_250537.3 kv=7.9674 kw=10 kvar=3 model=1 conn=delta
New Load.Load_A_oh_210547 Phases=1 Bus1=nd_250539.1 kv=7.9674 kw=6 kvar=2 model=1 conn=delta
New Load.Load_B_oh_210547 Phases=1 Bus1=nd_250539.2 kv=7.9674 kw=4 kvar=4 model=1 conn=delta
New Load.Load_C_oh_210547 Phases=1 Bus1=nd_250539.3 kv=7.9674 kw=10 kvar=3 model=1 conn=delta
New Load.Load_A_oh_210552 Phases=1 Bus1=nd_248551.1 kv=7.9674 kw=4 kvar=1 model=1 conn=delta
New Load.Load_B_oh_210552 Phases=1 Bus1=nd_248551.2 kv=7.9674 kw=4 kvar=1 model=1 conn=delta
New Load.Load_C_oh_210552 Phases=1 Bus1=nd_248551.3 kv=7.9674 kw=4 kvar=1 model=1 conn=delta
New Load.Load_A_oh_210553 Phases=1 Bus1=nd_250551.1 kv=7.9674 kw=3 kvar=1 model=1 conn=delta
New Load.Load_B_oh_210553 Phases=1 Bus1=nd_250551.2 kv=7.9674 kw=3 kvar=1 model=1 conn=delta
New Load.Load_C_oh_210553 Phases=1 Bus1=nd_250551.3 kv=7.9674 kw=3 kvar=1 model=1 conn=delta
New Load.Load_A_oh_210554 Phases=1 Bus1=nd_248571.1 kv=7.9674 kw=3 kvar=1 model=1 conn=delta
New Load.Load_B_oh_210554 Phases=1 Bus1=nd_248571.2 kv=7.9674 kw=3 kvar=1 model=1 conn=delta
New Load.Load_C_oh_210554 Phases=1 Bus1=nd_248571.3 kv=7.9674 kw=3 kvar=1 model=1 conn=delta
New Load.Load_A_oh_210556 Phases=1 Bus1=nd_250555.1 kv=7.9674 kw=1 kvar=1 model=1 conn=delta
New Load.Load_B_oh_210556 Phases=1 Bus1=nd_250555.2 kv=7.9674 kw=2 kvar=0 model=1 conn=delta
New Load.Load_A_oh_210558 Phases=1 Bus1=nd_250519.1 kv=7.9674 kw=4 kvar=1 model=1 conn=delta
New Load.Load_B_oh_210558 Phases=1 Bus1=nd_250519.2 kv=7.9674 kw=4 kvar=1 model=1 conn=delta
New Load.Load_C_oh_210558 Phases=1 Bus1=nd_250519.3 kv=7.9674 kw=4 kvar=1 model=1 conn=delta
New Load.Load_A_oh_210560 Phases=1 Bus1=nd_250533.1 kv=7.9674 kw=3 kvar=1 model=1 conn=delta
New Load.Load_A_oh_210561 Phases=1 Bus1=nd_250567.1 kv=7.9674 kw=10 kvar=3 model=1 conn=delta
New Load.Load_B_oh_210561 Phases=1 Bus1=nd_250567.2 kv=7.9674 kw=6 kvar=2 model=1 conn=delta
New Load.Load_C_oh_210561 Phases=1 Bus1=nd_250567.3 kv=7.9674 kw=4 kvar=4 model=1 conn=delta
New Load.Load_A_oh_210562 Phases=1 Bus1=nd_250533.1 kv=7.9674 kw=3 kvar=1 model=1 conn=delta
New Load.Load_B_oh_210562 Phases=1 Bus1=nd_250533.2 kv=7.9674 kw=2 kvar=0 model=1 conn=delta
New Load.Load_C_oh_210562 Phases=1 Bus1=nd_250533.3 kv=7.9674 kw=1 kvar=1 model=1 conn=delta
New Load.Load_A_oh_210563 Phases=1 Bus1=nd_250571.1 kv=7.9674 kw=4 kvar=4 model=1 conn=delta
New Load.Load_B_oh_210563 Phases=1 Bus1=nd_250571.2 kv=7.9674 kw=10 kvar=3 model=1 conn=delta
New Load.Load_C_oh_210563 Phases=1 Bus1=nd_250571.3 kv=7.9674 kw=6 kvar=2 model=1 conn=delta
New Load.Load_A_oh_210565 Phases=1 Bus1=nd_250575.1 kv=7.9674 kw=3 kvar=1 model=1 conn=delta
New Load.Load_B_oh_210565 Phases=1 Bus1=nd_250575.2 kv=7.9674 kw=3 kvar=1 model=1 conn=delta
New Load.Load_C_oh_210565 Phases=1 Bus1=nd_250575.3 kv=7.9674 kw=3 kvar=1 model=1 conn=delta
New Load.Load_A_oh_210566 Phases=1 Bus1=nd_250503.1 kv=7.9674 kw=4 kvar=1 model=1 conn=delta
New Load.Load_B_oh_210566 Phases=1 Bus1=nd_250503.2 kv=7.9674 kw=4 kvar=1 model=1 conn=delta
New Load.Load_C_oh_210566 Phases=1 Bus1=nd_250503.3 kv=7.9674 kw=4 kvar=1 model=1 conn=delta
New Load.Load_A_oh_210568 Phases=1 Bus1=nd_250503.1 kv=7.9674 kw=4 kvar=1 model=1 conn=delta
New Load.Load_B_oh_210568 Phases=1 Bus1=nd_250503.2 kv=7.9674 kw=4 kvar=1 model=1 conn=delta
New Load.Load_C_oh_210568 Phases=1 Bus1=nd_250503.3 kv=7.9674 kw=4 kvar=1 model=1 conn=delta
New Load.Load_C_oh_210569 Phases=1 Bus1=nd_250583.3 kv=7.9674 kw=3 kvar=1 model=1 conn=delta
New Load.Load_A_oh_210570 Phases=1 Bus1=nd_250491.1 kv=7.9674 kw=4 kvar=1 model=1 conn=delta
New Load.Load_B_oh_210570 Phases=1 Bus1=nd_250491.2 kv=7.9674 kw=4 kvar=1 model=1 conn=delta
New Load.Load_C_oh_210570 Phases=1 Bus1=nd_250491.3 kv=7.9674 kw=4 kvar=1 model=1 conn=delta
New Load.Load_A_oh_210572 Phases=1 Bus1=nd_250487.1 kv=7.9674 kw=4 kvar=1 model=1 conn=delta
New Load.Load_B_oh_210572 Phases=1 Bus1=nd_250487.2 kv=7.9674 kw=4 kvar=1 model=1 conn=delta
New Load.Load_C_oh_210572 Phases=1 Bus1=nd_250487.3 kv=7.9674 kw=4 kvar=1 model=1 conn=delta
New Load.Load_A_oh_210574 Phases=1 Bus1=nd_248583.1 kv=7.9674 kw=4 kvar=1 model=1 conn=delta
New Load.Load_B_oh_210574 Phases=1 Bus1=nd_248583.2 kv=7.9674 kw=4 kvar=1 model=1 conn=delta
New Load.Load_C_oh_210574 Phases=1 Bus1=nd_248583.3 kv=7.9674 kw=4 kvar=1 model=1 conn=delta
New Load.Load_A_oh_210576 Phases=1 Bus1=nd_248573.1 kv=7.9674 kw=3 kvar=1 model=1 conn=delta
New Load.Load_B_oh_210576 Phases=1 Bus1=nd_248573.2 kv=7.9674 kw=3 kvar=1 model=1 conn=delta
New Load.Load_C_oh_210576 Phases=1 Bus1=nd_248573.3 kv=7.9674 kw=3 kvar=1 model=1 conn=delta
New Load.Load_A_oh_210578 Phases=1 Bus1=nd_248573.1 kv=7.9674 kw=3 kvar=1 model=1 conn=delta
New Load.Load_B_oh_210578 Phases=1 Bus1=nd_248573.2 kv=7.9674 kw=3 kvar=1 model=1 conn=delta
New Load.Load_C_oh_210578 Phases=1 Bus1=nd_248573.3 kv=7.9674 kw=3 kvar=1 model=1 conn=delta
New Load.Load_A_oh_210582 Phases=1 Bus1=nd_250543.1 kv=7.9674 kw=7 kvar=2 model=1 conn=delta
New Load.Load_B_oh_210582 Phases=1 Bus1=nd_250543.2 kv=7.9674 kw=7 kvar=2 model=1 conn=delta
New Load.Load_C_oh_210582 Phases=1 Bus1=nd_250543.3 kv=7.9674 kw=7 kvar=2 model=1 conn=delta
New Load.Load_B_oh_210584 Phases=1 Bus1=nd_250611.2 kv=7.9674 kw=3 kvar=3 model=1 conn=delta
New Load.Load_C_oh_210584 Phases=1 Bus1=nd_250611.3 kv=7.9674 kw=4 kvar=1 model=1 conn=delta
New Load.Load_A_oh_210586 Phases=1 Bus1=nd_250615.1 kv=7.9674 kw=4 kvar=1 model=1 conn=delta
New Load.Load_B_oh_210586 Phases=1 Bus1=nd_250615.2 kv=7.9674 kw=2 kvar=1 model=1 conn=delta
New Load.Load_C_oh_210586 Phases=1 Bus1=nd_250615.3 kv=7.9674 kw=2 kvar=2 model=1 conn=delta
New Load.Load_A_oh_210588 Phases=1 Bus1=nd_250619.1 kv=7.9674 kw=1 kvar=0 model=1 conn=delta
New Load.Load_B_oh_210588 Phases=1 Bus1=nd_250619.2 kv=7.9674 kw=1 kvar=0 model=1 conn=delta
New Load.Load_C_oh_210588 Phases=1 Bus1=nd_250619.3 kv=7.9674 kw=1 kvar=0 model=1 conn=delta
New Load.Load_A_oh_210590 Phases=1 Bus1=nd_250623.1 kv=7.9674 kw=4 kvar=1 model=1 conn=delta
New Load.Load_B_oh_210590 Phases=1 Bus1=nd_250623.2 kv=7.9674 kw=4 kvar=1 model=1 conn=delta
New Load.Load_C_oh_210590 Phases=1 Bus1=nd_250623.3 kv=7.9674 kw=4 kvar=1 model=1 conn=delta
New Load.Load_A_oh_210992 Phases=1 Bus1=nd_250753.1 kv=7.9674 kw=1 kvar=0 model=1 conn=delta
New Load.Load_B_oh_210992 Phases=1 Bus1=nd_250753.2 kv=7.9674 kw=1 kvar=0 model=1 conn=delta
New Load.Load_C_oh_210992 Phases=1 Bus1=nd_250753.3 kv=7.9674 kw=1 kvar=0 model=1 conn=delta
New Load.Load_A_oh_211060 Phases=1 Bus1=nd_251506.1 kv=7.9674 kw=4 kvar=1 model=1 conn=delta
New Load.Load_B_oh_211060 Phases=1 Bus1=nd_251506.2 kv=7.9674 kw=4 kvar=1 model=1 conn=delta
New Load.Load_C_oh_211060 Phases=1 Bus1=nd_251506.3 kv=7.9674 kw=4 kvar=1 model=1 conn=delta
New Load.Load_A_oh_211061 Phases=1 Bus1=nd_251520.1 kv=7.9674 kw=4 kvar=1 model=1 conn=delta
New Load.Load_B_oh_211061 Phases=1 Bus1=nd_251520.2 kv=7.9674 kw=4 kvar=1 model=1 conn=delta
New Load.Load_C_oh_211061 Phases=1 Bus1=nd_251520.3 kv=7.9674 kw=4 kvar=1 model=1 conn=delta
New Load.Load_A_oh_211066 Phases=1 Bus1=nd_251530.1 kv=7.9674 kw=4 kvar=1 model=1 conn=delta
New Load.Load_B_oh_211066 Phases=1 Bus1=nd_251530.2 kv=7.9674 kw=4 kvar=1 model=1 conn=delta
New Load.Load_C_oh_211066 Phases=1 Bus1=nd_251530.3 kv=7.9674 kw=4 kvar=1 model=1 conn=delta
New Load.Load_A_oh_211068 Phases=1 Bus1=nd_251522.1 kv=7.9674 kw=4 kvar=1 model=1 conn=delta
New Load.Load_B_oh_211068 Phases=1 Bus1=nd_251522.2 kv=7.9674 kw=4 kvar=1 model=1 conn=delta
New Load.Load_C_oh_211068 Phases=1 Bus1=nd_251522.3 kv=7.9674 kw=4 kvar=1 model=1 conn=delta
New Load.Load_A_oh_211069 Phases=1 Bus1=nd_251530.1 kv=7.9674 kw=4 kvar=1 model=1 conn=delta
New Load.Load_B_oh_211069 Phases=1 Bus1=nd_251530.2 kv=7.9674 kw=4 kvar=1 model=1 conn=delta
New Load.Load_C_oh_211069 Phases=1 Bus1=nd_251530.3 kv=7.9674 kw=4 kvar=1 model=1 conn=delta
New Load.Load_A_oh_211072 Phases=1 Bus1=nd_251542.1 kv=7.9674 kw=7 kvar=2 model=1 conn=delta
New Load.Load_B_oh_211072 Phases=1 Bus1=nd_251542.2 kv=7.9674 kw=7 kvar=2 model=1 conn=delta
New Load.Load_C_oh_211072 Phases=1 Bus1=nd_251542.3 kv=7.9674 kw=7 kvar=2 model=1 conn=delta
New Load.Load_A_oh_211074 Phases=1 Bus1=nd_251536.1 kv=7.9674 kw=3 kvar=1 model=1 conn=delta
New Load.Load_B_oh_211074 Phases=1 Bus1=nd_251536.2 kv=7.9674 kw=3 kvar=1 model=1 conn=delta
New Load.Load_C_oh_211074 Phases=1 Bus1=nd_251536.3 kv=7.9674 kw=3 kvar=1 model=1 conn=delta
New Load.Load_A_oh_211075 Phases=1 Bus1=nd_251528.1 kv=7.9674 kw=4 kvar=1 model=1 conn=delta
New Load.Load_B_oh_211075 Phases=1 Bus1=nd_251528.2 kv=7.9674 kw=4 kvar=1 model=1 conn=delta
New Load.Load_C_oh_211075 Phases=1 Bus1=nd_251528.3 kv=7.9674 kw=4 kvar=1 model=1 conn=delta
New Load.Load_A_oh_211076 Phases=1 Bus1=nd_251530.1 kv=7.9674 kw=4 kvar=1 model=1 conn=delta
New Load.Load_B_oh_211076 Phases=1 Bus1=nd_251530.2 kv=7.9674 kw=4 kvar=1 model=1 conn=delta
New Load.Load_C_oh_211076 Phases=1 Bus1=nd_251530.3 kv=7.9674 kw=4 kvar=1 model=1 conn=delta
New Load.Load_A_oh_211077 Phases=1 Bus1=nd_251552.1 kv=7.9674 kw=4 kvar=1 model=1 conn=delta
New Load.Load_B_oh_211077 Phases=1 Bus1=nd_251552.2 kv=7.9674 kw=4 kvar=1 model=1 conn=delta
New Load.Load_C_oh_211077 Phases=1 Bus1=nd_251552.3 kv=7.9674 kw=4 kvar=1 model=1 conn=delta
New Load.Load_B_oh_211305 Phases=1 Bus1=nd_251963.2 kv=7.9674 kw=7 kvar=2 model=1 conn=delta
New Load.Load_B_oh_211309 Phases=1 Bus1=nd_251971.2 kv=7.9674 kw=10 kvar=3 model=1 conn=delta
New Load.Load_B_oh_211310 Phases=1 Bus1=nd_251945.2 kv=7.9674 kw=3 kvar=1 model=1 conn=delta
New Load.Load_A_oh_211312 Phases=1 Bus1=nd_251967.1 kv=7.9674 kw=13 kvar=4 model=1 conn=delta
New Load.Load_B_oh_211314 Phases=1 Bus1=nd_251981.2 kv=7.9674 kw=7 kvar=2 model=1 conn=delta
New Load.Load_B_oh_211315 Phases=1 Bus1=nd_251985.2 kv=7.9674 kw=7 kvar=2 model=1 conn=delta
New Load.Load_A_oh_211317 Phases=1 Bus1=nd_251967.1 kv=7.9674 kw=7 kvar=2 model=1 conn=delta
New Load.Load_B_oh_211317 Phases=1 Bus1=nd_251967.2 kv=7.9674 kw=7 kvar=2 model=1 conn=delta
New Load.Load_C_oh_211317 Phases=1 Bus1=nd_251967.3 kv=7.9674 kw=7 kvar=2 model=1 conn=delta
New Load.Load_B_oh_211520 Phases=1 Bus1=nd_251524.2 kv=7.9674 kw=10 kvar=3 model=1 conn=delta
New Load.Load_A_oh_211523 Phases=1 Bus1=nd_252399.1 kv=7.9674 kw=11 kvar=3 model=1 conn=delta
New Load.Load_C_oh_211523 Phases=1 Bus1=nd_252399.3 kv=7.9674 kw=8 kvar=8 model=1 conn=delta
New Load.Load_B_oh_211525 Phases=1 Bus1=nd_252405.2 kv=7.9674 kw=4 kvar=4 model=1 conn=delta
New Load.Load_C_oh_211525 Phases=1 Bus1=nd_252405.3 kv=7.9674 kw=6 kvar=2 model=1 conn=delta
New Load.Load_B_oh_211528 Phases=1 Bus1=nd_252411.2 kv=7.9674 kw=4 kvar=4 model=1 conn=delta
New Load.Load_C_oh_211528 Phases=1 Bus1=nd_252411.3 kv=7.9674 kw=6 kvar=2 model=1 conn=delta
New Load.Load_B_oh_211530 Phases=1 Bus1=nd_252415.2 kv=7.9674 kw=4 kvar=4 model=1 conn=delta
New Load.Load_C_oh_211530 Phases=1 Bus1=nd_252415.3 kv=7.9674 kw=6 kvar=2 model=1 conn=delta
New Load.Load_A_oh_211532 Phases=1 Bus1=nd_252419.1 kv=7.9674 kw=2 kvar=1 model=1 conn=delta
New Load.Load_C_oh_211532 Phases=1 Bus1=nd_252419.3 kv=7.9674 kw=2 kvar=2 model=1 conn=delta
New Load.Load_B_oh_211533 Phases=1 Bus1=nd_252419.2 kv=7.9674 kw=3 kvar=3 model=1 conn=delta
New Load.Load_C_oh_211533 Phases=1 Bus1=nd_252419.3 kv=7.9674 kw=4 kvar=1 model=1 conn=delta
New Load.Load_A_oh_211537 Phases=1 Bus1=nd_252397.1 kv=7.9674 kw=10 kvar=3 model=1 conn=delta
New Load.Load_B_oh_211537 Phases=1 Bus1=nd_252397.2 kv=7.9674 kw=6 kvar=2 model=1 conn=delta
New Load.Load_C_oh_211537 Phases=1 Bus1=nd_252397.3 kv=7.9674 kw=4 kvar=4 model=1 conn=delta
New Load.Load_C_oh_211538 Phases=1 Bus1=nd_252431.3 kv=7.9674 kw=10 kvar=3 model=1 conn=delta
New Load.Load_B_oh_211539 Phases=1 Bus1=nd_252397.2 kv=7.9674 kw=1 kvar=1 model=1 conn=delta
New Load.Load_C_oh_211539 Phases=1 Bus1=nd_252397.3 kv=7.9674 kw=2 kvar=0 model=1 conn=delta
New Load.Load_A_oh_211541 Phases=1 Bus1=nd_252397.1 kv=7.9674 kw=3 kvar=1 model=1 conn=delta
New Load.Load_B_oh_211541 Phases=1 Bus1=nd_252397.2 kv=7.9674 kw=2 kvar=0 model=1 conn=delta
New Load.Load_C_oh_211541 Phases=1 Bus1=nd_252397.3 kv=7.9674 kw=1 kvar=1 model=1 conn=delta
New Load.Load_A_oh_211546 Phases=1 Bus1=nd_252405.1 kv=7.9674 kw=4 kvar=1 model=1 conn=delta
New Load.Load_C_oh_211546 Phases=1 Bus1=nd_252405.3 kv=7.9674 kw=3 kvar=3 model=1 conn=delta
New Load.Load_B_oh_211547 Phases=1 Bus1=nd_252449.2 kv=7.9674 kw=7 kvar=2 model=1 conn=delta
New Load.Load_A_oh_211550 Phases=1 Bus1=nd_252455.1 kv=7.9674 kw=4 kvar=1 model=1 conn=delta
New Load.Load_B_oh_211550 Phases=1 Bus1=nd_252455.2 kv=7.9674 kw=4 kvar=1 model=1 conn=delta
New Load.Load_C_oh_211550 Phases=1 Bus1=nd_252455.3 kv=7.9674 kw=4 kvar=1 model=1 conn=delta
New Load.Load_B_oh_211579 Phases=1 Bus1=nd_252453.2 kv=7.9674 kw=3 kvar=3 model=1 conn=delta
New Load.Load_C_oh_211579 Phases=1 Bus1=nd_252453.3 kv=7.9674 kw=4 kvar=1 model=1 conn=delta
New Load.Load_A_oh_211587 Phases=1 Bus1=nd_252519.1 kv=7.9674 kw=6 kvar=2 model=1 conn=delta
New Load.Load_C_oh_211587 Phases=1 Bus1=nd_252519.3 kv=7.9674 kw=4 kvar=4 model=1 conn=delta
New Load.Load_A_oh_211588 Phases=1 Bus1=nd_252531.1 kv=7.9674 kw=7 kvar=2 model=1 conn=delta
New Load.Load_C_oh_211589 Phases=1 Bus1=nd_252483.3 kv=7.9674 kw=7 kvar=2 model=1 conn=delta
New Load.Load_A_oh_211593 Phases=1 Bus1=nd_252539.1 kv=7.9674 kw=4 kvar=1 model=1 conn=delta
New Load.Load_B_oh_211593 Phases=1 Bus1=nd_252539.2 kv=7.9674 kw=4 kvar=1 model=1 conn=delta
New Load.Load_C_oh_211593 Phases=1 Bus1=nd_252539.3 kv=7.9674 kw=4 kvar=1 model=1 conn=delta
New Load.Load_B_oh_211595 Phases=1 Bus1=nd_252543.2 kv=7.9674 kw=2 kvar=2 model=1 conn=delta
New Load.Load_C_oh_211595 Phases=1 Bus1=nd_252543.3 kv=7.9674 kw=2 kvar=1 model=1 conn=delta
New Load.Load_A_oh_211602 Phases=1 Bus1=nd_252453.1 kv=7.9674 kw=4 kvar=1 model=1 conn=delta
New Load.Load_B_oh_211602 Phases=1 Bus1=nd_252453.2 kv=7.9674 kw=4 kvar=1 model=1 conn=delta
New Load.Load_C_oh_211602 Phases=1 Bus1=nd_252453.3 kv=7.9674 kw=4 kvar=1 model=1 conn=delta
New Load.Load_A_oh_211618 Phases=1 Bus1=nd_252591.1 kv=7.9674 kw=4 kvar=1 model=1 conn=delta
New Load.Load_B_oh_211618 Phases=1 Bus1=nd_252591.2 kv=7.9674 kw=4 kvar=1 model=1 conn=delta
New Load.Load_C_oh_211618 Phases=1 Bus1=nd_252591.3 kv=7.9674 kw=4 kvar=1 model=1 conn=delta
New Load.Load_A_oh_211625 Phases=1 Bus1=nd_252605.1 kv=7.9674 kw=3 kvar=1 model=1 conn=delta
New Load.Load_B_oh_211625 Phases=1 Bus1=nd_252605.2 kv=7.9674 kw=2 kvar=0 model=1 conn=delta
New Load.Load_C_oh_211625 Phases=1 Bus1=nd_252605.3 kv=7.9674 kw=1 kvar=1 model=1 conn=delta
New Load.Load_A_oh_211632 Phases=1 Bus1=nd_252619.1 kv=7.9674 kw=1 kvar=0 model=1 conn=delta
New Load.Load_B_oh_211632 Phases=1 Bus1=nd_252619.2 kv=7.9674 kw=1 kvar=0 model=1 conn=delta
New Load.Load_C_oh_211632 Phases=1 Bus1=nd_252619.3 kv=7.9674 kw=1 kvar=0 model=1 conn=delta
New Load.Load_B_oh_223024 Phases=1 Bus1=nd_274172.2 kv=7.9674 kw=4 kvar=1 model=1 conn=delta
New Load.Load_A_oh_3953949830 Phases=1 Bus1=node_39540465718.1 kv=7.9674 kw=4 kvar=1 model=1 conn=delta
New Load.Load_B_oh_3953949830 Phases=1 Bus1=node_39540465718.2 kv=7.9674 kw=4 kvar=1 model=1 conn=delta
New Load.Load_C_oh_3953949830 Phases=1 Bus1=node_39540465718.3 kv=7.9674 kw=4 kvar=1 model=1 conn=delta
New Load.Load_A_oh_3954002142 Phases=1 Bus1=node_3954001931.1 kv=7.9674 kw=3 kvar=1 model=1 conn=delta
New Load.Load_B_oh_3954002142 Phases=1 Bus1=node_3954001931.2 kv=7.9674 kw=3 kvar=1 model=1 conn=delta
New Load.Load_C_oh_3954002142 Phases=1 Bus1=node_3954001931.3 kv=7.9674 kw=3 kvar=1 model=1 conn=delta
New Load.Load_A_oh_39540466419 Phases=1 Bus1=node_39540465718.1 kv=7.9674 kw=7 kvar=2 model=1 conn=delta
New Load.Load_B_oh_39540466419 Phases=1 Bus1=node_39540465718.2 kv=7.9674 kw=7 kvar=2 model=1 conn=delta
New Load.Load_C_oh_39540466419 Phases=1 Bus1=node_39540465718.3 kv=7.9674 kw=7 kvar=2 model=1 conn=delta
New Load.Load_A_oh_39540489024 Phases=1 Bus1=node_39540488823.1 kv=7.9674 kw=10 kvar=3 model=1 conn=delta
New Load.Load_B_oh_39540489024 Phases=1 Bus1=node_39540488823.2 kv=7.9674 kw=10 kvar=3 model=1 conn=delta
New Load.Load_C_oh_39540489024 Phases=1 Bus1=node_39540488823.3 kv=7.9674 kw=10 kvar=3 model=1 conn=delta
New Load.Load_B_oh_39541522331 Phases=1 Bus1=nd_251977.2 kv=7.9674 kw=13 kvar=4 model=1 conn=delta
New Load.Load_B_oh_39541579835 Phases=1 Bus1=nd_251975.2 kv=7.9674 kw=13 kvar=4 model=1 conn=delta
New Load.Load_C_oh_39541621638 Phases=1 Bus1=node_39541621637.3 kv=7.9674 kw=3 kvar=1 model=1 conn=delta
New Load.Load_A_oh_39541635041 Phases=1 Bus1=node_39541621637.1 kv=7.9674 kw=10 kvar=3 model=1 conn=delta
New Load.Load_A_oh_39541637643 Phases=1 Bus1=node_39541635242.1 kv=7.9674 kw=10 kvar=3 model=1 conn=delta
New Load.Load_A_oh_39541642145 Phases=1 Bus1=node_39541621637.1 kv=7.9674 kw=10 kvar=3 model=1 conn=delta
New Load.Load_A_oh_39541643647 Phases=1 Bus1=node_39541642246.1 kv=7.9674 kw=10 kvar=3 model=1 conn=delta
New Load.Load_C_oh_39541705749 Phases=1 Bus1=nd_252427.3 kv=7.9674 kw=10 kvar=3 model=1 conn=delta
New Load.Load_tiendas_chedraui_sa_cv Phases=3 Bus1=node_4444004931 kv=13.8 kw=402 kvar=8 model=1 conn=delta
New Load.Load_rest_excl_bajio_s_rl_cv Phases=3 Bus1=node_48544838831 kv=13.8 kw=179 kvar=83 model=1 conn=delta
New Load.Load_suburbia Phases=3 Bus1=node_48544907635 kv=13.8 kw=216 kvar=49 model=1 conn=delta
New Load.Load_umsnh_estadio Phases=3 Bus1=mh_6410+ kv=13.8 kw=215 kvar=84 model=1 conn=delta
New Load.Load_serv_ref_golfo_y_bajio_s_rl_cv Phases=3 Bus1=node_48544778629 kv=13.8 kw=242 kvar=66 model=1 conn=delta