New Loadshape.PVShape_Load_A_oh_124412 npts=288 interval=0.0833 mult=(file=D:\open\casos\Profiles\LCTProfiles\Norm_PV_Prof\Nprofile_1.csv) useactual=false
New Loadshape.PVShape_Load_B_oh_124412 npts=288 interval=0.0833 mult=(file=D:\open\casos\Profiles\LCTProfiles\Norm_PV_Prof\Nprofile_1.csv) useactual=false
New Loadshape.PVShape_Load_C_oh_124412 npts=288 interval=0.0833 mult=(file=D:\open\casos\Profiles\LCTProfiles\Norm_PV_Prof\Nprofile_1.csv) useactual=false
New Loadshape.PVShape_Load_C_oh_207147 npts=288 interval=0.0833 mult=(file=D:\open\casos\Profiles\LCTProfiles\Norm_PV_Prof\Nprofile_2.csv) useactual=false
New Loadshape.PVShape_Load_A_oh_207157 npts=288 interval=0.0833 mult=(file=D:\open\casos\Profiles\LCTProfiles\Norm_PV_Prof\Nprofile_3.csv) useactual=false
New Loadshape.PVShape_Load_C_oh_207157 npts=288 interval=0.0833 mult=(file=D:\open\casos\Profiles\LCTProfiles\Norm_PV_Prof\Nprofile_3.csv) useactual=false
New Loadshape.PVShape_Load_A_oh_207158 npts=288 interval=0.0833 mult=(file=D:\open\casos\Profiles\LCTProfiles\Norm_PV_Prof\Nprofile_4.csv) useactual=false
New Loadshape.PVShape_Load_C_oh_207158 npts=288 interval=0.0833 mult=(file=D:\open\casos\Profiles\LCTProfiles\Norm_PV_Prof\Nprofile_4.csv) useactual=false
New Loadshape.PVShape_Load_A_oh_207160 npts=288 interval=0.0833 mult=(file=D:\open\casos\Profiles\LCTProfiles\Norm_PV_Prof\Nprofile_5.csv) useactual=false
New Loadshape.PVShape_Load_C_oh_207160 npts=288 interval=0.0833 mult=(file=D:\open\casos\Profiles\LCTProfiles\Norm_PV_Prof\Nprofile_5.csv) useactual=false
New Loadshape.PVShape_Load_A_oh_207186 npts=288 interval=0.0833 mult=(file=D:\open\casos\Profiles\LCTProfiles\Norm_PV_Prof\Nprofile_6.csv) useactual=false
New Loadshape.PVShape_Load_C_oh_207186 npts=288 interval=0.0833 mult=(file=D:\open\casos\Profiles\LCTProfiles\Norm_PV_Prof\Nprofile_6.csv) useactual=false
New Loadshape.PVShape_Load_A_oh_207190 npts=288 interval=0.0833 mult=(file=D:\open\casos\Profiles\LCTProfiles\Norm_PV_Prof\Nprofile_7.csv) useactual=false
New Loadshape.PVShape_Load_B_oh_207190 npts=288 interval=0.0833 mult=(file=D:\open\casos\Profiles\LCTProfiles\Norm_PV_Prof\Nprofile_7.csv) useactual=false
New Loadshape.PVShape_Load_C_oh_207190 npts=288 interval=0.0833 mult=(file=D:\open\casos\Profiles\LCTProfiles\Norm_PV_Prof\Nprofile_7.csv) useactual=false
New Loadshape.PVShape_Load_A_oh_207193 npts=288 interval=0.0833 mult=(file=D:\open\casos\Profiles\LCTProfiles\Norm_PV_Prof\Nprofile_8.csv) useactual=false
New Loadshape.PVShape_Load_B_oh_207193 npts=288 interval=0.0833 mult=(file=D:\open\casos\Profiles\LCTProfiles\Norm_PV_Prof\Nprofile_8.csv) useactual=false
New Loadshape.PVShape_Load_C_oh_207193 npts=288 interval=0.0833 mult=(file=D:\open\casos\Profiles\LCTProfiles\Norm_PV_Prof\Nprofile_8.csv) useactual=false
New Loadshape.PVShape_Load_A_oh_207199 npts=288 interval=0.0833 mult=(file=D:\open\casos\Profiles\LCTProfiles\Norm_PV_Prof\Nprofile_9.csv) useactual=false
New Loadshape.PVShape_Load_B_oh_207199 npts=288 interval=0.0833 mult=(file=D:\open\casos\Profiles\LCTProfiles\Norm_PV_Prof\Nprofile_9.csv) useactual=false
New Loadshape.PVShape_Load_C_oh_207199 npts=288 interval=0.0833 mult=(file=D:\open\casos\Profiles\LCTProfiles\Norm_PV_Prof\Nprofile_9.csv) useactual=false
New Loadshape.PVShape_Load_A_oh_207241 npts=288 interval=0.0833 mult=(file=D:\open\casos\Profiles\LCTProfiles\Norm_PV_Prof\Nprofile_10.csv) useactual=false
New Loadshape.PVShape_Load_B_oh_207241 npts=288 interval=0.0833 mult=(file=D:\open\casos\Profiles\LCTProfiles\Norm_PV_Prof\Nprofile_10.csv) useactual=false
New Loadshape.PVShape_Load_C_oh_207241 npts=288 interval=0.0833 mult=(file=D:\open\casos\Profiles\LCTProfiles\Norm_PV_Prof\Nprofile_10.csv) useactual=false
New Loadshape.PVShape_Load_A_oh_207251 npts=288 interval=0.0833 mult=(file=D:\open\casos\Profiles\LCTProfiles\Norm_PV_Prof\Nprofile_11.csv) useactual=false
New Loadshape.PVShape_Load_B_oh_207251 npts=288 interval=0.0833 mult=(file=D:\open\casos\Profiles\LCTProfiles\Norm_PV_Prof\Nprofile_11.csv) useactual=false
New Loadshape.PVShape_Load_C_oh_207251 npts=288 interval=0.0833 mult=(file=D:\open\casos\Profiles\LCTProfiles\Norm_PV_Prof\Nprofile_11.csv) useactual=false
New Loadshape.PVShape_Load_A_oh_207416 npts=288 interval=0.0833 mult=(file=D:\open\casos\Profiles\LCTProfiles\Norm_PV_Prof\Nprofile_12.csv) useactual=false
New Loadshape.PVShape_Load_A_oh_207421 npts=288 interval=0.0833 mult=(file=D:\open\casos\Profiles\LCTProfiles\Norm_PV_Prof\Nprofile_13.csv) useactual=false
New Loadshape.PVShape_Load_B_oh_207421 npts=288 interval=0.0833 mult=(file=D:\open\casos\Profiles\LCTProfiles\Norm_PV_Prof\Nprofile_13.csv) useactual=false
New Loadshape.PVShape_Load_C_oh_207421 npts=288 interval=0.0833 mult=(file=D:\open\casos\Profiles\LCTProfiles\Norm_PV_Prof\Nprofile_13.csv) useactual=false
New Loadshape.PVShape_Load_A_oh_207422 npts=288 interval=0.0833 mult=(file=D:\open\casos\Profiles\LCTProfiles\Norm_PV_Prof\Nprofile_14.csv) useactual=false
New Loadshape.PVShape_Load_B_oh_207422 npts=288 interval=0.0833 mult=(file=D:\open\casos\Profiles\LCTProfiles\Norm_PV_Prof\Nprofile_14.csv) useactual=false
New Loadshape.PVShape_Load_C_oh_207422 npts=288 interval=0.0833 mult=(file=D:\open\casos\Profiles\LCTProfiles\Norm_PV_Prof\Nprofile_14.csv) useactual=false
New Loadshape.PVShape_Load_A_oh_207429 npts=288 interval=0.0833 mult=(file=D:\open\casos\Profiles\LCTProfiles\Norm_PV_Prof\Nprofile_15.csv) useactual=false
New Loadshape.PVShape_Load_B_oh_207429 npts=288 interval=0.0833 mult=(file=D:\open\casos\Profiles\LCTProfiles\Norm_PV_Prof\Nprofile_15.csv) useactual=false
New Loadshape.PVShape_Load_C_oh_207429 npts=288 interval=0.0833 mult=(file=D:\open\casos\Profiles\LCTProfiles\Norm_PV_Prof\Nprofile_15.csv) useactual=false
New Loadshape.PVShape_Load_A_oh_207431 npts=288 interval=0.0833 mult=(file=D:\open\casos\Profiles\LCTProfiles\Norm_PV_Prof\Nprofile_16.csv) useactual=false
New Loadshape.PVShape_Load_B_oh_207431 npts=288 interval=0.0833 mult=(file=D:\open\casos\Profiles\LCTProfiles\Norm_PV_Prof\Nprofile_16.csv) useactual=false
New Loadshape.PVShape_Load_C_oh_207431 npts=288 interval=0.0833 mult=(file=D:\open\casos\Profiles\LCTProfiles\Norm_PV_Prof\Nprofile_16.csv) useactual=false
New Loadshape.PVShape_Load_A_oh_207435 npts=288 interval=0.0833 mult=(file=D:\open\casos\Profiles\LCTProfiles\Norm_PV_Prof\Nprofile_17.csv) useactual=false
New Loadshape.PVShape_Load_B_oh_207435 npts=288 interval=0.0833 mult=(file=D:\open\casos\Profiles\LCTProfiles\Norm_PV_Prof\Nprofile_17.csv) useactual=false
New Loadshape.PVShape_Load_C_oh_207435 npts=288 interval=0.0833 mult=(file=D:\open\casos\Profiles\LCTProfiles\Norm_PV_Prof\Nprofile_17.csv) useactual=false
New Loadshape.PVShape_Load_A_oh_207439 npts=288 interval=0.0833 mult=(file=D:\open\casos\Profiles\LCTProfiles\Norm_PV_Prof\Nprofile_18.csv) useactual=false
New Loadshape.PVShape_Load_B_oh_207439 npts=288 interval=0.0833 mult=(file=D:\open\casos\Profiles\LCTProfiles\Norm_PV_Prof\Nprofile_18.csv) useactual=false
New Loadshape.PVShape_Load_C_oh_207439 npts=288 interval=0.0833 mult=(file=D:\open\casos\Profiles\LCTProfiles\Norm_PV_Prof\Nprofile_18.csv) useactual=false
New Loadshape.PVShape_Load_A_oh_207440 npts=288 interval=0.0833 mult=(file=D:\open\casos\Profiles\LCTProfiles\Norm_PV_Prof\Nprofile_19.csv) useactual=false
New Loadshape.PVShape_Load_B_oh_207440 npts=288 interval=0.0833 mult=(file=D:\open\casos\Profiles\LCTProfiles\Norm_PV_Prof\Nprofile_19.csv) useactual=false
New Loadshape.PVShape_Load_C_oh_207440 npts=288 interval=0.0833 mult=(file=D:\open\casos\Profiles\LCTProfiles\Norm_PV_Prof\Nprofile_19.csv) useactual=false
New Loadshape.PVShape_Load_A_oh_207446 npts=288 interval=0.0833 mult=(file=D:\open\casos\Profiles\LCTProfiles\Norm_PV_Prof\Nprofile_20.csv) useactual=false
New Loadshape.PVShape_Load_B_oh_207446 npts=288 interval=0.0833 mult=(file=D:\open\casos\Profiles\LCTProfiles\Norm_PV_Prof\Nprofile_20.csv) useactual=false
New Loadshape.PVShape_Load_C_oh_207446 npts=288 interval=0.0833 mult=(file=D:\open\casos\Profiles\LCTProfiles\Norm_PV_Prof\Nprofile_20.csv) useactual=false
New Loadshape.PVShape_Load_A_oh_209545 npts=288 interval=0.0833 mult=(file=D:\open\casos\Profiles\LCTProfiles\Norm_PV_Prof\Nprofile_21.csv) useactual=false
New Loadshape.PVShape_Load_B_oh_209545 npts=288 interval=0.0833 mult=(file=D:\open\casos\Profiles\LCTProfiles\Norm_PV_Prof\Nprofile_21.csv) useactual=false
New Loadshape.PVShape_Load_C_oh_209545 npts=288 interval=0.0833 mult=(file=D:\open\casos\Profiles\LCTProfiles\Norm_PV_Prof\Nprofile_21.csv) useactual=false
New Loadshape.PVShape_Load_A_oh_209558 npts=288 interval=0.0833 mult=(file=D:\open\casos\Profiles\LCTProfiles\Norm_PV_Prof\Nprofile_22.csv) useactual=false
New Loadshape.PVShape_Load_B_oh_209558 npts=288 interval=0.0833 mult=(file=D:\open\casos\Profiles\LCTProfiles\Norm_PV_Prof\Nprofile_22.csv) useactual=false
New Loadshape.PVShape_Load_C_oh_209558 npts=288 interval=0.0833 mult=(file=D:\open\casos\Profiles\LCTProfiles\Norm_PV_Prof\Nprofile_22.csv) useactual=false
New Loadshape.PVShape_Load_A_oh_210521 npts=288 interval=0.0833 mult=(file=D:\open\casos\Profiles\LCTProfiles\Norm_PV_Prof\Nprofile_23.csv) useactual=false
New Loadshape.PVShape_Load_B_oh_210521 npts=288 interval=0.0833 mult=(file=D:\open\casos\Profiles\LCTProfiles\Norm_PV_Prof\Nprofile_23.csv) useactual=false
New Loadshape.PVShape_Load_C_oh_210521 npts=288 interval=0.0833 mult=(file=D:\open\casos\Profiles\LCTProfiles\Norm_PV_Prof\Nprofile_23.csv) useactual=false
New Loadshape.PVShape_Load_A_oh_210523 npts=288 interval=0.0833 mult=(file=D:\open\casos\Profiles\LCTProfiles\Norm_PV_Prof\Nprofile_24.csv) useactual=false
New Loadshape.PVShape_Load_B_oh_210523 npts=288 interval=0.0833 mult=(file=D:\open\casos\Profiles\LCTProfiles\Norm_PV_Prof\Nprofile_24.csv) useactual=false
New Loadshape.PVShape_Load_C_oh_210523 npts=288 interval=0.0833 mult=(file=D:\open\casos\Profiles\LCTProfiles\Norm_PV_Prof\Nprofile_24.csv) useactual=false
New Loadshape.PVShape_Load_A_oh_210524 npts=288 interval=0.0833 mult=(file=D:\open\casos\Profiles\LCTProfiles\Norm_PV_Prof\Nprofile_25.csv) useactual=false
New Loadshape.PVShape_Load_B_oh_210524 npts=288 interval=0.0833 mult=(file=D:\open\casos\Profiles\LCTProfiles\Norm_PV_Prof\Nprofile_25.csv) useactual=false
New Loadshape.PVShape_Load_C_oh_210524 npts=288 interval=0.0833 mult=(file=D:\open\casos\Profiles\LCTProfiles\Norm_PV_Prof\Nprofile_25.csv) useactual=false
New Loadshape.PVShape_Load_B_oh_210526 npts=288 interval=0.0833 mult=(file=D:\open\casos\Profiles\LCTProfiles\Norm_PV_Prof\Nprofile_26.csv) useactual=false
New Loadshape.PVShape_Load_A_oh_210534 npts=288 interval=0.0833 mult=(file=D:\open\casos\Profiles\LCTProfiles\Norm_PV_Prof\Nprofile_27.csv) useactual=false
New Loadshape.PVShape_Load_B_oh_210534 npts=288 interval=0.0833 mult=(file=D:\open\casos\Profiles\LCTProfiles\Norm_PV_Prof\Nprofile_27.csv) useactual=false
New Loadshape.PVShape_Load_C_oh_210534 npts=288 interval=0.0833 mult=(file=D:\open\casos\Profiles\LCTProfiles\Norm_PV_Prof\Nprofile_27.csv) useactual=false
New Loadshape.PVShape_Load_A_oh_210540 npts=288 interval=0.0833 mult=(file=D:\open\casos\Profiles\LCTProfiles\Norm_PV_Prof\Nprofile_28.csv) useactual=false
New Loadshape.PVShape_Load_B_oh_210540 npts=288 interval=0.0833 mult=(file=D:\open\casos\Profiles\LCTProfiles\Norm_PV_Prof\Nprofile_28.csv) useactual=false
New Loadshape.PVShape_Load_C_oh_210540 npts=288 interval=0.0833 mult=(file=D:\open\casos\Profiles\LCTProfiles\Norm_PV_Prof\Nprofile_28.csv) useactual=false
New Loadshape.PVShape_Load_A_oh_210542 npts=288 interval=0.0833 mult=(file=D:\open\casos\Profiles\LCTProfiles\Norm_PV_Prof\Nprofile_29.csv) useactual=false
New Loadshape.PVShape_Load_B_oh_210542 npts=288 interval=0.0833 mult=(file=D:\open\casos\Profiles\LCTProfiles\Norm_PV_Prof\Nprofile_29.csv) useactual=false
New Loadshape.PVShape_Load_C_oh_210542 npts=288 interval=0.0833 mult=(file=D:\open\casos\Profiles\LCTProfiles\Norm_PV_Prof\Nprofile_29.csv) useactual=false
New Loadshape.PVShape_Load_A_oh_210546 npts=288 interval=0.0833 mult=(file=D:\open\casos\Profiles\LCTProfiles\Norm_PV_Prof\Nprofile_30.csv) useactual=false
New Loadshape.PVShape_Load_B_oh_210546 npts=288 interval=0.0833 mult=(file=D:\open\casos\Profiles\LCTProfiles\Norm_PV_Prof\Nprofile_30.csv) useactual=false
New Loadshape.PVShape_Load_C_oh_210546 npts=288 interval=0.0833 mult=(file=D:\open\casos\Profiles\LCTProfiles\Norm_PV_Prof\Nprofile_30.csv) useactual=false
New Loadshape.PVShape_Load_A_oh_210547 npts=288 interval=0.0833 mult=(file=D:\open\casos\Profiles\LCTProfiles\Norm_PV_Prof\Nprofile_31.csv) useactual=false
New Loadshape.PVShape_Load_B_oh_210547 npts=288 interval=0.0833 mult=(file=D:\open\casos\Profiles\LCTProfiles\Norm_PV_Prof\Nprofile_31.csv) useactual=false
New Loadshape.PVShape_Load_C_oh_210547 npts=288 interval=0.0833 mult=(file=D:\open\casos\Profiles\LCTProfiles\Norm_PV_Prof\Nprofile_31.csv) useactual=false
New Loadshape.PVShape_Load_A_oh_210552 npts=288 interval=0.0833 mult=(file=D:\open\casos\Profiles\LCTProfiles\Norm_PV_Prof\Nprofile_32.csv) useactual=false
New Loadshape.PVShape_Load_B_oh_210552 npts=288 interval=0.0833 mult=(file=D:\open\casos\Profiles\LCTProfiles\Norm_PV_Prof\Nprofile_32.csv) useactual=false
New Loadshape.PVShape_Load_C_oh_210552 npts=288 interval=0.0833 mult=(file=D:\open\casos\Profiles\LCTProfiles\Norm_PV_Prof\Nprofile_32.csv) useactual=false
New Loadshape.PVShape_Load_A_oh_210553 npts=288 interval=0.0833 mult=(file=D:\open\casos\Profiles\LCTProfiles\Norm_PV_Prof\Nprofile_33.csv) useactual=false
New Loadshape.PVShape_Load_B_oh_210553 npts=288 interval=0.0833 mult=(file=D:\open\casos\Profiles\LCTProfiles\Norm_PV_Prof\Nprofile_33.csv) useactual=false
New Loadshape.PVShape_Load_C_oh_210553 npts=288 interval=0.0833 mult=(file=D:\open\casos\Profiles\LCTProfiles\Norm_PV_Prof\Nprofile_33.csv) useactual=false
New Loadshape.PVShape_Load_A_oh_210554 npts=288 interval=0.0833 mult=(file=D:\open\casos\Profiles\LCTProfiles\Norm_PV_Prof\Nprofile_34.csv) useactual=false
New Loadshape.PVShape_Load_B_oh_210554 npts=288 interval=0.0833 mult=(file=D:\open\casos\Profiles\LCTProfiles\Norm_PV_Prof\Nprofile_34.csv) useactual=false
New Loadshape.PVShape_Load_C_oh_210554 npts=288 interval=0.0833 mult=(file=D:\open\casos\Profiles\LCTProfiles\Norm_PV_Prof\Nprofile_34.csv) useactual=false
New Loadshape.PVShape_Load_A_oh_210556 npts=288 interval=0.0833 mult=(file=D:\open\casos\Profiles\LCTProfiles\Norm_PV_Prof\Nprofile_35.csv) useactual=false
New Loadshape.PVShape_Load_B_oh_210556 npts=288 interval=0.0833 mult=(file=D:\open\casos\Profiles\LCTProfiles\Norm_PV_Prof\Nprofile_35.csv) useactual=false
New Loadshape.PVShape_Load_A_oh_210558 npts=288 interval=0.0833 mult=(file=D:\open\casos\Profiles\LCTProfiles\Norm_PV_Prof\Nprofile_36.csv) useactual=false
New Loadshape.PVShape_Load_B_oh_210558 npts=288 interval=0.0833 mult=(file=D:\open\casos\Profiles\LCTProfiles\Norm_PV_Prof\Nprofile_36.csv) useactual=false
New Loadshape.PVShape_Load_C_oh_210558 npts=288 interval=0.0833 mult=(file=D:\open\casos\Profiles\LCTProfiles\Norm_PV_Prof\Nprofile_36.csv) useactual=false
New Loadshape.PVShape_Load_A_oh_210560 npts=288 interval=0.0833 mult=(file=D:\open\casos\Profiles\LCTProfiles\Norm_PV_Prof\Nprofile_37.csv) useactual=false
New Loadshape.PVShape_Load_A_oh_210561 npts=288 interval=0.0833 mult=(file=D:\open\casos\Profiles\LCTProfiles\Norm_PV_Prof\Nprofile_38.csv) useactual=false
New Loadshape.PVShape_Load_B_oh_210561 npts=288 interval=0.0833 mult=(file=D:\open\casos\Profiles\LCTProfiles\Norm_PV_Prof\Nprofile_38.csv) useactual=false
New Loadshape.PVShape_Load_C_oh_210561 npts=288 interval=0.0833 mult=(file=D:\open\casos\Profiles\LCTProfiles\Norm_PV_Prof\Nprofile_38.csv) useactual=false
New Loadshape.PVShape_Load_A_oh_210562 npts=288 interval=0.0833 mult=(file=D:\open\casos\Profiles\LCTProfiles\Norm_PV_Prof\Nprofile_39.csv) useactual=false
New Loadshape.PVShape_Load_B_oh_210562 npts=288 interval=0.0833 mult=(file=D:\open\casos\Profiles\LCTProfiles\Norm_PV_Prof\Nprofile_39.csv) useactual=false
New Loadshape.PVShape_Load_C_oh_210562 npts=288 interval=0.0833 mult=(file=D:\open\casos\Profiles\LCTProfiles\Norm_PV_Prof\Nprofile_39.csv) useactual=false
New Loadshape.PVShape_Load_A_oh_210563 npts=288 interval=0.0833 mult=(file=D:\open\casos\Profiles\LCTProfiles\Norm_PV_Prof\Nprofile_40.csv) useactual=false
New Loadshape.PVShape_Load_B_oh_210563 npts=288 interval=0.0833 mult=(file=D:\open\casos\Profiles\LCTProfiles\Norm_PV_Prof\Nprofile_40.csv) useactual=false
New Loadshape.PVShape_Load_C_oh_210563 npts=288 interval=0.0833 mult=(file=D:\open\casos\Profiles\LCTProfiles\Norm_PV_Prof\Nprofile_40.csv) useactual=false
New Loadshape.PVShape_Load_A_oh_210565 npts=288 interval=0.0833 mult=(file=D:\open\casos\Profiles\LCTProfiles\Norm_PV_Prof\Nprofile_41.csv) useactual=false
New Loadshape.PVShape_Load_B_oh_210565 npts=288 interval=0.0833 mult=(file=D:\open\casos\Profiles\LCTProfiles\Norm_PV_Prof\Nprofile_41.csv) useactual=false
New Loadshape.PVShape_Load_C_oh_210565 npts=288 interval=0.0833 mult=(file=D:\open\casos\Profiles\LCTProfiles\Norm_PV_Prof\Nprofile_41.csv) useactual=false
New Loadshape.PVShape_Load_A_oh_210566 npts=288 interval=0.0833 mult=(file=D:\open\casos\Profiles\LCTProfiles\Norm_PV_Prof\Nprofile_42.csv) useactual=false
New Loadshape.PVShape_Load_B_oh_210566 npts=288 interval=0.0833 mult=(file=D:\open\casos\Profiles\LCTProfiles\Norm_PV_Prof\Nprofile_42.csv) useactual=false
New Loadshape.PVShape_Load_C_oh_210566 npts=288 interval=0.0833 mult=(file=D:\open\casos\Profiles\LCTProfiles\Norm_PV_Prof\Nprofile_42.csv) useactual=false
New Loadshape.PVShape_Load_A_oh_210568 npts=288 interval=0.0833 mult=(file=D:\open\casos\Profiles\LCTProfiles\Norm_PV_Prof\Nprofile_43.csv) useactual=false
New Loadshape.PVShape_Load_B_oh_210568 npts=288 interval=0.0833 mult=(file=D:\open\casos\Profiles\LCTProfiles\Norm_PV_Prof\Nprofile_43.csv) useactual=false
New Loadshape.PVShape_Load_C_oh_210568 npts=288 interval=0.0833 mult=(file=D:\open\casos\Profiles\LCTProfiles\Norm_PV_Prof\Nprofile_43.csv) useactual=false
New Loadshape.PVShape_Load_C_oh_210569 npts=288 interval=0.0833 mult=(file=D:\open\casos\Profiles\LCTProfiles\Norm_PV_Prof\Nprofile_44.csv) useactual=false
New Loadshape.PVShape_Load_A_oh_210570 npts=288 interval=0.0833 mult=(file=D:\open\casos\Profiles\LCTProfiles\Norm_PV_Prof\Nprofile_45.csv) useactual=false
New Loadshape.PVShape_Load_B_oh_210570 npts=288 interval=0.0833 mult=(file=D:\open\casos\Profiles\LCTProfiles\Norm_PV_Prof\Nprofile_45.csv) useactual=false
New Loadshape.PVShape_Load_C_oh_210570 npts=288 interval=0.0833 mult=(file=D:\open\casos\Profiles\LCTProfiles\Norm_PV_Prof\Nprofile_45.csv) useactual=false
New Loadshape.PVShape_Load_A_oh_210572 npts=288 interval=0.0833 mult=(file=D:\open\casos\Profiles\LCTProfiles\Norm_PV_Prof\Nprofile_46.csv) useactual=false
New Loadshape.PVShape_Load_B_oh_210572 npts=288 interval=0.0833 mult=(file=D:\open\casos\Profiles\LCTProfiles\Norm_PV_Prof\Nprofile_46.csv) useactual=false
New Loadshape.PVShape_Load_C_oh_210572 npts=288 interval=0.0833 mult=(file=D:\open\casos\Profiles\LCTProfiles\Norm_PV_Prof\Nprofile_46.csv) useactual=false
New Loadshape.PVShape_Load_A_oh_210574 npts=288 interval=0.0833 mult=(file=D:\open\casos\Profiles\LCTProfiles\Norm_PV_Prof\Nprofile_47.csv) useactual=false
New Loadshape.PVShape_Load_B_oh_210574 npts=288 interval=0.0833 mult=(file=D:\open\casos\Profiles\LCTProfiles\Norm_PV_Prof\Nprofile_47.csv) useactual=false
New Loadshape.PVShape_Load_C_oh_210574 npts=288 interval=0.0833 mult=(file=D:\open\casos\Profiles\LCTProfiles\Norm_PV_Prof\Nprofile_47.csv) useactual=false
New Loadshape.PVShape_Load_A_oh_210576 npts=288 interval=0.0833 mult=(file=D:\open\casos\Profiles\LCTProfiles\Norm_PV_Prof\Nprofile_48.csv) useactual=false
New Loadshape.PVShape_Load_B_oh_210576 npts=288 interval=0.0833 mult=(file=D:\open\casos\Profiles\LCTProfiles\Norm_PV_Prof\Nprofile_48.csv) useactual=false
New Loadshape.PVShape_Load_C_oh_210576 npts=288 interval=0.0833 mult=(file=D:\open\casos\Profiles\LCTProfiles\Norm_PV_Prof\Nprofile_48.csv) useactual=false
New Loadshape.PVShape_Load_A_oh_210578 npts=288 interval=0.0833 mult=(file=D:\open\casos\Profiles\LCTProfiles\Norm_PV_Prof\Nprofile_49.csv) useactual=false
New Loadshape.PVShape_Load_B_oh_210578 npts=288 interval=0.0833 mult=(file=D:\open\casos\Profiles\LCTProfiles\Norm_PV_Prof\Nprofile_49.csv) useactual=false
New Loadshape.PVShape_Load_C_oh_210578 npts=288 interval=0.0833 mult=(file=D:\open\casos\Profiles\LCTProfiles\Norm_PV_Prof\Nprofile_49.csv) useactual=false
New Loadshape.PVShape_Load_A_oh_210582 npts=288 interval=0.0833 mult=(file=D:\open\casos\Profiles\LCTProfiles\Norm_PV_Prof\Nprofile_50.csv) useactual=false
New Loadshape.PVShape_Load_B_oh_210582 npts=288 interval=0.0833 mult=(file=D:\open\casos\Profiles\LCTProfiles\Norm_PV_Prof\Nprofile_50.csv) useactual=false
New Loadshape.PVShape_Load_C_oh_210582 npts=288 interval=0.0833 mult=(file=D:\open\casos\Profiles\LCTProfiles\Norm_PV_Prof\Nprofile_50.csv) useactual=false
New Loadshape.PVShape_Load_B_oh_210584 npts=288 interval=0.0833 mult=(file=D:\open\casos\Profiles\LCTProfiles\Norm_PV_Prof\Nprofile_51.csv) useactual=false
New Loadshape.PVShape_Load_C_oh_210584 npts=288 interval=0.0833 mult=(file=D:\open\casos\Profiles\LCTProfiles\Norm_PV_Prof\Nprofile_51.csv) useactual=false
New Loadshape.PVShape_Load_A_oh_210586 npts=288 interval=0.0833 mult=(file=D:\open\casos\Profiles\LCTProfiles\Norm_PV_Prof\Nprofile_52.csv) useactual=false
New Loadshape.PVShape_Load_B_oh_210586 npts=288 interval=0.0833 mult=(file=D:\open\casos\Profiles\LCTProfiles\Norm_PV_Prof\Nprofile_52.csv) useactual=false
New Loadshape.PVShape_Load_C_oh_210586 npts=288 interval=0.0833 mult=(file=D:\open\casos\Profiles\LCTProfiles\Norm_PV_Prof\Nprofile_52.csv) useactual=false
New Loadshape.PVShape_Load_A_oh_210588 npts=288 interval=0.0833 mult=(file=D:\open\casos\Profiles\LCTProfiles\Norm_PV_Prof\Nprofile_53.csv) useactual=false
New Loadshape.PVShape_Load_B_oh_210588 npts=288 interval=0.0833 mult=(file=D:\open\casos\Profiles\LCTProfiles\Norm_PV_Prof\Nprofile_53.csv) useactual=false
New Loadshape.PVShape_Load_C_oh_210588 npts=288 interval=0.0833 mult=(file=D:\open\casos\Profiles\LCTProfiles\Norm_PV_Prof\Nprofile_53.csv) useactual=false
New Loadshape.PVShape_Load_A_oh_210590 npts=288 interval=0.0833 mult=(file=D:\open\casos\Profiles\LCTProfiles\Norm_PV_Prof\Nprofile_54.csv) useactual=false
New Loadshape.PVShape_Load_B_oh_210590 npts=288 interval=0.0833 mult=(file=D:\open\casos\Profiles\LCTProfiles\Norm_PV_Prof\Nprofile_54.csv) useactual=false
New Loadshape.PVShape_Load_C_oh_210590 npts=288 interval=0.0833 mult=(file=D:\open\casos\Profiles\LCTProfiles\Norm_PV_Prof\Nprofile_54.csv) useactual=false
New Loadshape.PVShape_Load_A_oh_210992 npts=288 interval=0.0833 mult=(file=D:\open\casos\Profiles\LCTProfiles\Norm_PV_Prof\Nprofile_55.csv) useactual=false
New Loadshape.PVShape_Load_B_oh_210992 npts=288 interval=0.0833 mult=(file=D:\open\casos\Profiles\LCTProfiles\Norm_PV_Prof\Nprofile_55.csv) useactual=false
New Loadshape.PVShape_Load_C_oh_210992 npts=288 interval=0.0833 mult=(file=D:\open\casos\Profiles\LCTProfiles\Norm_PV_Prof\Nprofile_55.csv) useactual=false
New Loadshape.PVShape_Load_A_oh_211060 npts=288 interval=0.0833 mult=(file=D:\open\casos\Profiles\LCTProfiles\Norm_PV_Prof\Nprofile_56.csv) useactual=false
New Loadshape.PVShape_Load_B_oh_211060 npts=288 interval=0.0833 mult=(file=D:\open\casos\Profiles\LCTProfiles\Norm_PV_Prof\Nprofile_56.csv) useactual=false
New Loadshape.PVShape_Load_C_oh_211060 npts=288 interval=0.0833 mult=(file=D:\open\casos\Profiles\LCTProfiles\Norm_PV_Prof\Nprofile_56.csv) useactual=false
New Loadshape.PVShape_Load_A_oh_211061 npts=288 interval=0.0833 mult=(file=D:\open\casos\Profiles\LCTProfiles\Norm_PV_Prof\Nprofile_57.csv) useactual=false
New Loadshape.PVShape_Load_B_oh_211061 npts=288 interval=0.0833 mult=(file=D:\open\casos\Profiles\LCTProfiles\Norm_PV_Prof\Nprofile_57.csv) useactual=false
New Loadshape.PVShape_Load_C_oh_211061 npts=288 interval=0.0833 mult=(file=D:\open\casos\Profiles\LCTProfiles\Norm_PV_Prof\Nprofile_57.csv) useactual=false
New Loadshape.PVShape_Load_A_oh_211066 npts=288 interval=0.0833 mult=(file=D:\open\casos\Profiles\LCTProfiles\Norm_PV_Prof\Nprofile_58.csv) useactual=false
New Loadshape.PVShape_Load_B_oh_211066 npts=288 interval=0.0833 mult=(file=D:\open\casos\Profiles\LCTProfiles\Norm_PV_Prof\Nprofile_58.csv) useactual=false
New Loadshape.PVShape_Load_C_oh_211066 npts=288 interval=0.0833 mult=(file=D:\open\casos\Profiles\LCTProfiles\Norm_PV_Prof\Nprofile_58.csv) useactual=false
New Loadshape.PVShape_Load_A_oh_211068 npts=288 interval=0.0833 mult=(file=D:\open\casos\Profiles\LCTProfiles\Norm_PV_Prof\Nprofile_59.csv) useactual=false
New Loadshape.PVShape_Load_B_oh_211068 npts=288 interval=0.0833 mult=(file=D:\open\casos\Profiles\LCTProfiles\Norm_PV_Prof\Nprofile_59.csv) useactual=false
New Loadshape.PVShape_Load_C_oh_211068 npts=288 interval=0.0833 mult=(file=D:\open\casos\Profiles\LCTProfiles\Norm_PV_Prof\Nprofile_59.csv) useactual=false
New Loadshape.PVShape_Load_A_oh_211069 npts=288 interval=0.0833 mult=(file=D:\open\casos\Profiles\LCTProfiles\Norm_PV_Prof\Nprofile_60.csv) useactual=false
New Loadshape.PVShape_Load_B_oh_211069 npts=288 interval=0.0833 mult=(file=D:\open\casos\Profiles\LCTProfiles\Norm_PV_Prof\Nprofile_60.csv) useactual=false
New Loadshape.PVShape_Load_C_oh_211069 npts=288 interval=0.0833 mult=(file=D:\open\casos\Profiles\LCTProfiles\Norm_PV_Prof\Nprofile_60.csv) useactual=false
New Loadshape.PVShape_Load_A_oh_211072 npts=288 interval=0.0833 mult=(file=D:\open\casos\Profiles\LCTProfiles\Norm_PV_Prof\Nprofile_61.csv) useactual=false
New Loadshape.PVShape_Load_B_oh_211072 npts=288 interval=0.0833 mult=(file=D:\open\casos\Profiles\LCTProfiles\Norm_PV_Prof\Nprofile_61.csv) useactual=false
New Loadshape.PVShape_Load_C_oh_211072 npts=288 interval=0.0833 mult=(file=D:\open\casos\Profiles\LCTProfiles\Norm_PV_Prof\Nprofile_61.csv) useactual=false
New Loadshape.PVShape_Load_A_oh_211074 npts=288 interval=0.0833 mult=(file=D:\open\casos\Profiles\LCTProfiles\Norm_PV_Prof\Nprofile_62.csv) useactual=false
New Loadshape.PVShape_Load_B_oh_211074 npts=288 interval=0.0833 mult=(file=D:\open\casos\Profiles\LCTProfiles\Norm_PV_Prof\Nprofile_62.csv) useactual=false
New Loadshape.PVShape_Load_C_oh_211074 npts=288 interval=0.0833 mult=(file=D:\open\casos\Profiles\LCTProfiles\Norm_PV_Prof\Nprofile_62.csv) useactual=false
New Loadshape.PVShape_Load_A_oh_211075 npts=288 interval=0.0833 mult=(file=D:\open\casos\Profiles\LCTProfiles\Norm_PV_Prof\Nprofile_63.csv) useactual=false
New Loadshape.PVShape_Load_B_oh_211075 npts=288 interval=0.0833 mult=(file=D:\open\casos\Profiles\LCTProfiles\Norm_PV_Prof\Nprofile_63.csv) useactual=false
New Loadshape.PVShape_Load_C_oh_211075 npts=288 interval=0.0833 mult=(file=D:\open\casos\Profiles\LCTProfiles\Norm_PV_Prof\Nprofile_63.csv) useactual=false
New Loadshape.PVShape_Load_A_oh_211076 npts=288 interval=0.0833 mult=(file=D:\open\casos\Profiles\LCTProfiles\Norm_PV_Prof\Nprofile_64.csv) useactual=false
New Loadshape.PVShape_Load_B_oh_211076 npts=288 interval=0.0833 mult=(file=D:\open\casos\Profiles\LCTProfiles\Norm_PV_Prof\Nprofile_64.csv) useactual=false
New Loadshape.PVShape_Load_C_oh_211076 npts=288 interval=0.0833 mult=(file=D:\open\casos\Profiles\LCTProfiles\Norm_PV_Prof\Nprofile_64.csv) useactual=false
New Loadshape.PVShape_Load_A_oh_211077 npts=288 interval=0.0833 mult=(file=D:\open\casos\Profiles\LCTProfiles\Norm_PV_Prof\Nprofile_65.csv) useactual=false
New Loadshape.PVShape_Load_B_oh_211077 npts=288 interval=0.0833 mult=(file=D:\open\casos\Profiles\LCTProfiles\Norm_PV_Prof\Nprofile_65.csv) useactual=false
New Loadshape.PVShape_Load_C_oh_211077 npts=288 interval=0.0833 mult=(file=D:\open\casos\Profiles\LCTProfiles\Norm_PV_Prof\Nprofile_65.csv) useactual=false
New Loadshape.PVShape_Load_B_oh_211305 npts=288 interval=0.0833 mult=(file=D:\open\casos\Profiles\LCTProfiles\Norm_PV_Prof\Nprofile_67.csv) useactual=false
New Loadshape.PVShape_Load_B_oh_211309 npts=288 interval=0.0833 mult=(file=D:\open\casos\Profiles\LCTProfiles\Norm_PV_Prof\Nprofile_68.csv) useactual=false
New Loadshape.PVShape_Load_B_oh_211310 npts=288 interval=0.0833 mult=(file=D:\open\casos\Profiles\LCTProfiles\Norm_PV_Prof\Nprofile_69.csv) useactual=false
New Loadshape.PVShape_Load_A_oh_211312 npts=288 interval=0.0833 mult=(file=D:\open\casos\Profiles\LCTProfiles\Norm_PV_Prof\Nprofile_70.csv) useactual=false
New Loadshape.PVShape_Load_B_oh_211314 npts=288 interval=0.0833 mult=(file=D:\open\casos\Profiles\LCTProfiles\Norm_PV_Prof\Nprofile_71.csv) useactual=false
New Loadshape.PVShape_Load_B_oh_211315 npts=288 interval=0.0833 mult=(file=D:\open\casos\Profiles\LCTProfiles\Norm_PV_Prof\Nprofile_72.csv) useactual=false
New Loadshape.PVShape_Load_A_oh_211317 npts=288 interval=0.0833 mult=(file=D:\open\casos\Profiles\LCTProfiles\Norm_PV_Prof\Nprofile_73.csv) useactual=false
New Loadshape.PVShape_Load_B_oh_211317 npts=288 interval=0.0833 mult=(file=D:\open\casos\Profiles\LCTProfiles\Norm_PV_Prof\Nprofile_73.csv) useactual=false
New Loadshape.PVShape_Load_C_oh_211317 npts=288 interval=0.0833 mult=(file=D:\open\casos\Profiles\LCTProfiles\Norm_PV_Prof\Nprofile_73.csv) useactual=false
New Loadshape.PVShape_Load_B_oh_211520 npts=288 interval=0.0833 mult=(file=D:\open\casos\Profiles\LCTProfiles\Norm_PV_Prof\Nprofile_74.csv) useactual=false
New Loadshape.PVShape_Load_A_oh_211523 npts=288 interval=0.0833 mult=(file=D:\open\casos\Profiles\LCTProfiles\Norm_PV_Prof\Nprofile_75.csv) useactual=false
New Loadshape.PVShape_Load_C_oh_211523 npts=288 interval=0.0833 mult=(file=D:\open\casos\Profiles\LCTProfiles\Norm_PV_Prof\Nprofile_75.csv) useactual=false